3
Properties=species:S:1:pos:R:3:some_label:L:2 charge=0 is_true
 O  3.340669  0.264248  2.537911  T  True
 H  3.390790 -0.626971  2.171608  F  True
 H  2.864329  0.114369  3.363500  F  False
4
Properties=species:S:1:pos:R:3 charge=1 pi=3.14
 O  0.345442  2.459846 -3.307138
 H -0.014756  3.353830 -3.351982
 H  0.165199  2.217623 -2.390731
 H -10.00000 -11.00000 -12.00000
3
charge=-1 Properties=pos:R:3:Z:I:1
-0.232964 -0.789588 -3.247615  8
0.408579 -0.076745 -3.353627   1
-0.872081 -0.394705 -2.642175  1

